*Heading
** Job name: Job Model name: Model-1
** Generated by: Abaqus/CAE 2021.HF4
*Preprint, echo=NO, model=NO, history=NO, contact=NO
**
** PARTS
**
*Part, name=indenter
*End Part
**  
*Part, name=part
*Node
      1,   27.2275162,   11.1349764
      2,   26.1349754,   12.2275162
      3,          25.,         12.5
      4,   23.8650246,   12.2275162
      5,   22.7724838,   11.1349764
      6,         22.5,          10.
      7,   22.7724838,   8.86502361
      8,   23.8650246,   7.77248383
      9,          25.,          7.5
     10,   26.1349754,   7.77248383
     11,   27.2275162,   8.86502361
     12,         27.5,          10.
     13,          48.,           0.
     14,          46.,           0.
     15,          44.,           0.
     16,          42.,           0.
     17,          40.,           0.
     18,          38.,           0.
     19,          35.,           0.
     20,          33.,           0.
** ... 1749 like lines cut
*Element, type=CPE4H
   1,  379,  279,  278,  410
   2,  603,  539,  608,  621
   3,  179,  705,  783,  800
   4, 1096, 1135,   97, 1115
   5, 1115,   97, 1132, 1146
   6,  183, 1340, 1245, 1266
   7, 1310, 1314, 1319, 1332
   8, 1385, 1650, 1330,   95
   9,   94, 1329, 1327, 1324
  10,  336,   41, 1052,  977
  11, 1399,  977, 1052,  187
  12,  335,   40, 1051,  978
  13, 1400,  978, 1051,  154
  14,  334,   39, 1050,  979
  15,  233, 1406, 1456, 1524
  16, 1372, 1018, 1074,  257
  17,  364,   67, 1073,  980
  18, 1362,  980, 1073, 1564
  19,   67,  363,  981, 1073
  20,  981, 1072, 1357,  258
** ... 1659 like lines cut
*Nset, nset=_PickedSet6, internal, generate
    1,  1769,     1
*Elset, elset=_PickedSet6, internal, generate
    1,  1679,     1
** Section: section
*Solid Section, elset=_PickedSet6, material=Material
,
*End Part
**  
**
** ASSEMBLY
**
*Assembly, name=Assembly
**  
*Instance, name=indenter-1, part=indenter
         25.,    30.077822,           0.
*Node
      1,           0., 6.17088648e-16,           0.
*Nset, nset=indenter-1-RefPt_, internal
1, 
*Surface, type=SEGMENTS, name=RigidSurface_, internal
START,          10.,        -1.25
 CIRCL,         -10.,        -1.25,           0.,           0.
*Rigid Body, ref node=indenter-1-RefPt_, analytical surface=RigidSurface_
*End Instance
**  
*Instance, name=part, part=part
*End Instance
**  
*Nset, nset=bottom, instance=part
  13,  14,  15,  16,  17,  18,  19,  20,  21,  22,  23,  24,  25,  26,  27,  28
  29,  30,  31,  32,  33,  34,  35,  36,  37, 306, 307, 308, 309, 310, 311, 312
 313, 314, 315, 316, 317, 318, 319, 320, 321, 322, 323, 324, 325, 326, 327, 328
 329, 330, 331
*Elset, elset=bottom, instance=part
   25,   45,   47,   62,   63,   64,   68,   69,   70,   71,   72,   86,  127,  128,  139,  150
  159,  167,  174,  175,  181,  182,  187,  193,  279,  391,  396,  397,  404,  465,  476,  477
  478,  481, 1067, 1070, 1138, 1149, 1150, 1151, 1152, 1153, 1154, 1155, 1161, 1169, 1170, 1171
 1194, 1195
*Nset, nset=nodes, instance=part, generate
    1,  1769,     1
*Nset, nset=refrence_point, instance=indenter-1
 1,
*Elset, elset=__PickedSurf10_S1, internal, instance=part
   17,   19,   34,   35,   36,   37,   96,   98,  115,  209,  210,  215,  216,  219,  220,  225
  226,  241,  248,  249,  250,  253,  254,  256, 1144, 1165, 1168, 1182, 1183, 1188, 1200, 1202
 1213,
*Elset, elset=__PickedSurf10_S3, internal, instance=part
   33,  137,  205,  208,  230,  235,  502,  506,  507,  508,  515,  516, 1065, 1133, 1189
*Elset, elset=__PickedSurf10_S4, internal, instance=part
  207, 1025
*Surface, type=ELEMENT, name=_PickedSurf10, internal
__PickedSurf10_S1, S1
__PickedSurf10_S3, S3
__PickedSurf10_S4, S4
*Elset, elset=__PickedSurf11_S2, internal, instance=part
   1,  91,  92, 112, 265, 344, 449, 450, 454, 455, 456, 457, 458, 459, 462, 463
 529, 531, 533, 534, 539, 542
*Elset, elset=__PickedSurf11_S4, internal, instance=part
  56,  57,  90, 121, 125, 126, 268, 269, 270, 447, 448, 451, 452, 453, 460, 461
 464, 526
*Surface, type=ELEMENT, name=_PickedSurf11, internal
__PickedSurf11_S2, S2
__PickedSurf11_S4, S4
*End Assembly
** 
** MATERIALS
** 
*Material, name=Material
*Hyperelastic, neo hooke
 963.489,0.
** 
** INTERACTION PROPERTIES
** 
*Surface Interaction, name=IntProp-1
1.,
*Friction
0.,
*Surface Behavior, pressure-overclosure=HARD
** 
** BOUNDARY CONDITIONS
** 
** Name: bottom Type: Displacement/Rotation
*Boundary
bottom, 1, 1
bottom, 2, 2
bottom, 6, 6
** Name: indenter Type: Displacement/Rotation
*Boundary
refrence_point, 1, 1
refrence_point, 6, 6
** 
** INTERACTIONS
** 
** Interaction: Int-1
*Contact Pair, interaction=IntProp-1, type=SURFACE TO SURFACE
_PickedSurf11,
** Interaction: Int-2
*Contact Pair, interaction=IntProp-1, type=SURFACE TO SURFACE
_PickedSurf10, indenter-1.RigidSurface_
** ----------------------------------------------------------------
** 
** STEP: static
** 
*Step, name=static, nlgeom=YES
*Static
1., 1., 1e-05, 1.
*Solution Technique, type=QUASI-NEWTON
** 
** BOUNDARY CONDITIONS
** 
** Name: indenter Type: Displacement/Rotation
*Boundary
refrence_point, 1, 1, 2.32019
refrence_point, 2, 2, -2.36164
** 
** OUTPUT REQUESTS
** 
*Restart, write, frequency=0
** 
** FIELD OUTPUT: F-Output-1
** 
*Output, field
*Node Output
U, 
*Element Output, directions=YES
MISES, 
*Output, history, frequency=0
*End Step
